sad/pglib_opf_case2312_goc__sad.m
%%%%%%%%%%%%%%%%%%%%%%%%%%%%%%%%%%%%%%%%%%%%%%%%%%%%%%%%%%%%%%%%%%%%%%%%%%%
%%%%                                                                  %%%%%
%%%%    IEEE PES Power Grid Library - Optimal Power Flow - v20.04     %%%%%
%%%%          (https://github.com/power-grid-lib/pglib-opf)           %%%%%
%%%%             Benchmark Group - Small Angle Difference             %%%%%
%%%%                         12 - July - 2020                         %%%%%
%%%%                                                                  %%%%%
%%%%%%%%%%%%%%%%%%%%%%%%%%%%%%%%%%%%%%%%%%%%%%%%%%%%%%%%%%%%%%%%%%%%%%%%%%%
function mpc = pglib_opf_case2312_goc__sad
mpc.version = '2';
mpc.baseMVA = 100.0;

%% bus data
%	bus_i	type	Pd	Qd	Gs	Bs	area	Vm	Va	baseKV	zone	Vmax	Vmin
mpc.bus = [
	1	 1	 0.0	 0.0	 0.0	 0.0	 1	    1.00000	    0.00000	 345.0	 1	    1.10000	    0.90000;
	2	 1	 7.19	 -4.074	 0.0	 -7.133	 1	    1.00000	    0.00000	 345.0	 1	    1.10000	    0.90000;
	3	 1	 1.523	 1.047	 0.0	 0.0	 1	    1.00000	    0.00000	 345.0	 1	    1.10000	    0.90000;
	4	 1	 14.723	 -5.338	 0.0	 -9.601	 1	    1.00000	    0.00000	 345.0	 1	    1.10000	    0.90000;
	5	 1	 0.0	 0.0	 0.0	 0.0	 1	    1.00000	    0.00000	 345.0	 1	    1.10000	    0.90000;
	6	 1	 43.573	 22.627	 0.0	 41.987	 1	    1.00000	    0.00000	 345.0	 1	    1.10000	    0.90000;
	7	 1	 0.0	 0.0	 0.0	 0.0	 1	    1.00000	    0.00000	 345.0	 1	    1.10000	    0.90000;
	8	 1	 0.0	 0.0	 0.0	 0.0	 1	    1.00000	    0.00000	 345.0	 1	    1.10000	    0.90000;
	9	 1	 121.248	 -56.789	 0.0	 0.0	 1	    1.00000	    0.00000	 345.0	 1	    1.10000	    0.90000;
	10	 1	 22.751	 40.005	 0.0	 0.0	 1	    1.00000	    0.00000	 345.0	 1	    1.10000	    0.90000;
	11	 1	 6.855	 4.115	 0.0	 0.0	 1	    1.00000	    0.00000	 138.0	 1	    1.10000	    0.90000;
	12	 1	 11.5	 5.858	 0.0	 0.0	 1	    1.00000	    0.00000	 138.0	 1	    1.10000	    0.90000;
	13	 1	 3.468	 1.364	 0.0	 0.0	 1	    1.00000	    0.00000	 138.0	 1	    1.10000	    0.90000;
	14	 1	 11.202	 4.297	 0.0	 0.0	 1	    1.00000	    0.00000	 138.0	 1	    1.10000	    0.90000;
	15	 1	 0.236	 0.055	 0.0	 0.0	 1	    1.00000	    0.00000	 138.0	 1	    1.10000	    0.90000;
	16	 1	 0.0	 0.0	 0.0	 0.0	 1	    1.00000	    0.00000	 138.0	 1	    1.10000	    0.90000;
	17	 1	 5.852	 2.532	 0.0	 0.0	 1	    1.00000	    0.00000	 138.0	 1	    1.10000	    0.90000;
	18	 1	 1.348	 0.438	 0.0	 0.0	 1	    1.00000	    0.00000	 138.0	 1	    1.10000	    0.90000;
	19	 1	 0.822	 0.274	 0.0	 0.0	 1	    1.00000	    0.00000	 138.0	 1	    1.10000	    0.90000;
	20	 1	 11.256	 -19.5	 0.0	 0.0	 1	    1.00000	    0.00000	 138.0	 1	    1.10000	    0.90000;
	21	 1	 7.984	 1.699	 0.0	 0.0	 1	    1.00000	    0.00000	 138.0	 1	    1.10000	    0.90000;
	22	 1	 0.0	 0.0	 0.0	 0.0	 1	    1.00000	    0.00000	 138.0	 1	    1.10000	    0.90000;
	23	 1	 23.291	 -7.051	 0.0	 0.0	 1	    1.00000	    0.00000	 138.0	 1	    1.10000	    0.90000;
	24	 2	 4.679	 2.751	 0.0	 0.0	 1	    1.00000	    0.00000	 138.0	 1	    1.10000	    0.90000;
	25	 1	 0.0	 -0.219	 0.0	 0.0	 1	    1.00000	    0.00000	 138.0	 1	    1.10000	    0.90000;
	26	 1	 19.403	 6.91	 0.0	 0.0	 1	    1.00000	    0.00000	 138.0	 1	    1.10000	    0.90000;
	27	 1	 2.46	 0.822	 0.0	 0.0	 1	    1.00000	    0.00000	 138.0	 1	    1.10000	    0.90000;
	28	 1	 0.0	 0.0	 0.0	 0.0	 1	    1.00000	    0.00000	 138.0	 1	    1.10000	    0.90000;
	29	 1	 5.211	 2.033	 0.0	 0.0	 1	    1.00000	    0.00000	 138.0	 1	    1.10000	    0.90000;
	30	 1	 0.0	 0.0	 0.0	 0.0	 1	    1.00000	    0.00000	 138.0	 1	    1.10000	    0.90000;
	31	 1	 2.69	 0.937	 0.0	 0.0	 1	    1.00000	    0.00000	 138.0	 1	    1.10000	    0.90000;
	32	 1	 3.863	 1.923	 0.0	 -1.306	 1	    1.00000	    0.00000	 138.0	 1	    1.10000	    0.90000;
	33	 1	 3.863	 2.532	 0.0	 0.0	 1	    1.00000	    0.00000	 138.0	 1	    1.10000	    0.90000;
	34	 1	 0.0	 0.0	 0.0	 0.0	 1	    1.00000	    0.00000	 138.0	 1	    1.10000	    0.90000;
	35	 1	 0.877	 0.274	 0.0	 0.0	 1	    1.00000	    0.00000	 138.0	 1	    1.10000	    0.90000;
	36	 1	 0.0	 0.0	 0.0	 0.0	 1	    1.00000	    0.00000	 138.0	 1	    1.10000	    0.90000;
	37	 1	 0.0	 0.0	 0.0	 0.0	 1	    1.00000	    0.00000	 138.0	 1	    1.10000	    0.90000;
	38	 1	 0.0	 0.0	 0.0	 0.0	 1	    1.00000	    0.00000	 138.0	 1	    1.10000	    0.90000;
	39	 1	 9.298	 -0.002	 0.0	 -0.488	 1	    1.00000	    0.00000	 138.0	 1	    1.10000	    0.90000;
	40	 1	 0.0	 0.0	 0.0	 0.0	 1	    1.00000	    0.00000	 138.0	 1	    1.10000	    0.90000;
	41	 1	 0.937	 0.329	 0.0	 0.0	 1	    1.00000	    0.00000	 138.0	 1	    1.10000	    0.90000;
	42	 1	 3.337	 0.493	 0.0	 0.0	 1	    1.00000	    0.00000	 138.0	 1	    1.10000	    0.90000;
	43	 1	 7.851	 2.115	 0.0	 3.712	 1	    1.00000	    0.00000	 138.0	 1	    1.10000	    0.90000;
	44	 1	 8.683	 4.552	 0.0	 0.0	 1	    1.00000	    0.00000	 138.0	 1	    1.10000	    0.90000;
	45	 1	 2.712	 1.249	 0.0	 0.0	 1	    1.00000	    0.00000	 138.0	 1	    1.10000	    0.90000;
	46	 2	 20.377	 8.551	 0.0	 0.0	 1	    1.00000	    0.00000	 138.0	 1	    1.10000	    0.90000;
	47	 1	 6.416	 2.296	 0.0	 0.0	 1	    1.00000	    0.00000	 138.0	 1	    1.10000	    0.90000;
	48	 1	 0.0	 0.082	 0.0	 0.0	 1	    1.00000	    0.00000	 138.0	 1	    1.10000	    0.90000;
	49	 1	 22.697	 0.068	 0.0	 -4.149	 1	    1.00000	    0.00000	 138.0	 1	    1.10000	    0.90000;
	50	 1	 0.0	 0.0	 0.0	 0.0	 1	    1.00000	    0.00000	 138.0	 1	    1.10000	    0.90000;
	51	 1	 0.0	 0.0	 0.0	 0.0	 1	    1.00000	    0.00000	 138.0	 1	    1.10000	    0.90000;
	52	 1	 10.186	 3.244	 0.0	 0.0	 1	    1.00000	    0.00000	 138.0	 1	    1.10000	    0.90000;
	53	 1	 4.34	 1.764	 0.0	 -61.98	 1	    1.00000	    0.00000	 138.0	 1	    1.10000	    0.90000;
	54	 1	 2.11	 1.156	 0.0	 0.0	 1	    1.00000	    0.00000	 138.0	 1	    1.10000	    0.90000;
	55	 1	 0.175	 0.0	 0.0	 0.0	 1	    1.00000	    0.00000	 138.0	 1	    1.10000	    0.90000;
	56	 1	 3.874	 1.436	 0.0	 0.0	 1	    1.00000	    0.00000	 138.0	 1	    1.10000	    0.90000;
	57	 1	 2.285	 0.816	 0.0	 0.0	 1	    1.00000	    0.00000	 138.0	 1	    1.10000	    0.90000;
	58	 1	 27.316	 -3.219	 0.0	 0.0	 1	    1.00000	    0.00000	 138.0	 1	    1.10000	    0.90000;
	59	 1	 3.633	 1.222	 0.0	 0.0	 1	    1.00000	    0.00000	 138.0	 1	    1.10000	    0.90000;
	60	 1	 0.822	 0.219	 0.0	 0.0	 1	    1.00000	    0.00000	 138.0	 1	    1.10000	    0.90000;
	61	 1	 4.92	 13.296	 0.0	 0.0	 1	    1.00000	    0.00000	 138.0	 1	    1.10000	    0.90000;
	62	 1	 0.0	 0.0	 0.0	 0.0	 1	    1.00000	    0.00000	 138.0	 1	    1.10000	    0.90000;
	63	 1	 2.575	 0.849	 0.0	 0.0	 1	    1.00000	    0.00000	 138.0	 1	    1.10000	    0.90000;
	64	 1	 1.288	 0.438	 0.0	 0.0	 1	    1.00000	    0.00000	 138.0	 1	    1.10000	    0.90000;
	65	 1	 1.173	 0.384	 0.0	 0.0	 1	    1.00000	    0.00000	 138.0	 1	    1.10000	    0.90000;
	66	 1	 4.049	 1.496	 0.0	 0.0	 1	    1.00000	    0.00000	 138.0	 1	    1.10000	    0.90000;
	67	 1	 5.288	 2.044	 0.0	 3.708	 1	    1.00000	    0.00000	 138.0	 1	    1.10000	    0.90000;
	68	 2	 9.425	 18.526	 0.0	 0.0	 1	    1.00000	    0.00000	 138.0	 1	    1.10000	    0.90000;
	69	 1	 0.0	 0.0	 0.0	 0.0	 1	    1.00000	    0.00000	 138.0	 1	    1.10000	    0.90000;
	70	 1	 13.699	 3.836	 0.0	 0.0	 1	    1.00000	    0.00000	 138.0	 1	    1.10000	    0.90000;
	71	 1	 0.0	 0.0	 0.0	 0.0	 1	    1.00000	    0.00000	 345.0	 2	    1.10000	    0.90000;
	72	 1	 0.0	 0.0	 0.0	 0.0	 1	    1.00000	    0.00000	 345.0	 2	    1.10000	    0.90000;
	73	 1	 0.0	 0.0	 0.0	 0.0	 1	    1.00000	    0.00000	 345.0	 2	    1.10000	    0.90000;
	74	 1	 0.0	 0.0	 0.0	 0.0	 1	    1.00000	    0.00000	 345.0	 2	    1.10000	    0.90000;
	75	 1	 6.575	 16.438	 0.0	 0.0	 1	    1.00000	    0.00000	 345.0	 2	    1.10000	    0.90000;
	76	 2	 10.91	 20.038	 0.0	 0.0	 1	    1.00000	    0.00000	 345.0	 2	    1.10000	    0.90000;
	77	 2	 6.575	 16.438	 0.0	 0.0	 1	    1.00000	    0.00000	 500.0	 2	    1.10000	    0.90000;
	78	 2	 0.0	 0.0	 0.0	 6.23030263671	 1	    1.00000	    0.00000	 345.0	 2	    1.10000	    0.90000;
	79	 1	 0.0	 0.0	 0.0	 0.0	 1	    1.00000	    0.00000	 345.0	 2	    1.10000	    0.90000;
	80	 1	 0.0	 0.0	 0.0	 0.0	 1	    1.00000	    0.00000	 345.0	 2	    1.10000	    0.90000;
	81	 1	 0.0	 0.0	 0.0	 0.0	 1	    1.00000	    0.00000	 345.0	 2	    1.10000	    0.90000;
	82	 1	 0.0	 0.0	 0.0	 0.0	 1	    1.00000	    0.00000	 345.0	 2	    1.10000	    0.90000;
	83	 1	 6.274	 1.447	 0.0	 0.0	 1	    1.00000	    0.00000	 138.0	 2	    1.10000	    0.90000;
	84	 1	 14.197	 3.518	 0.0	 0.0	 1	    1.00000	    0.00000	 138.0	 2	    1.10000	    0.90000;
	85	 1	 0.0	 0.0	 0.0	 0.0	 1	    1.00000	    0.00000	 138.0	 2	    1.10000	    0.90000;
	86	 1	 8.605	 4.785	 0.0	 6.325	 1	    1.00000	    0.00000	 138.0	 2	    1.10000	    0.90000;
	87	 1	 1.655	 0.696	 0.0	 0.0	 1	    1.00000	    0.00000	 138.0	 2	    1.10000	    0.90000;
	88	 1	 3.633	 0.351	 0.0	 0.0	 1	    1.00000	    0.00000	 138.0	 2	    1.10000	    0.90000;
	89	 1	 6.844	 2.658	 0.0	 0.0	 1	    1.00000	    0.00000	 138.0	 2	    1.10000	    0.90000;
	90	 1	 1.989	 0.29	 0.0	 -0.019	 1	    1.00000	    0.00000	 138.0	 2	    1.10000	    0.90000;
	91	 1	 1.94	 0.636	 0.0	 0.0	 1	    1.00000	    0.00000	 138.0	 2	    1.10000	    0.90000;
	92	 1	 10.532	 18.027	 0.0	 0.0	 1	    1.00000	    0.00000	 138.0	 2	    1.10000	    0.90000;
	93	 1	 0.0	 0.0	 0.0	 0.0	 1	    1.00000	    0.00000	 138.0	 2	    1.10000	    0.90000;
	94	 1	 1.255	 0.46	 0.0	 0.0	 1	    1.00000	    0.00000	 138.0	 2	    1.10000	    0.90000;
	95	 1	 2.57	 1.047	 0.0	 7.99995490307	 1	    1.00000	    0.00000	 138.0	 2	    1.10000	    0.90000;
	96	 1	 0.055	 -0.433	 0.0	 0.0	 1	    1.00000	    0.00000	 138.0	 2	    1.10000	    0.90000;
	97	 1	 3.055	 1.078	 0.0	 0.0	 1	    1.00000	    0.00000	 138.0	 2	    1.10000	    0.90000;
	98	 2	 11.087	 13.984	 0.0	 0.0	 1	    1.00000	    0.00000	 138.0	 2	    1.10000	    0.90000;
	99	 2	 6.885	 5.08	 0.0	 0.0	 1	    1.00000	    0.00000	 138.0	 2	    1.10000	    0.90000;
	100	 1	 7.074	 2.597	 0.0	 0.0	 1	    1.00000	    0.00000	 138.0	 2	    1.10000	    0.90000;
	101	 1	 5.134	 2.077	 0.0	 0.0	 1	    1.00000	    0.00000	 138.0	 2	    1.10000	    0.90000;
	102	 1	 7.759	 3.118	 0.0	 0.0	 1	    1.00000	    0.00000	 138.0	 2	    1.10000	    0.90000;
	103	 1	 6.247	 2.049	 0.0	 0.0	 1	    1.00000	    0.00000	 138.0	 2	    1.10000	    0.90000;
	104	 1	 5.704	 2.082	 0.0	 -1.48527940582e-05	 1	    1.00000	    0.00000	 138.0	 2	    1.10000	    0.90000;
	105	 1	 0.0	 0.0	 0.0	 0.0	 1	    1.00000	    0.00000	 138.0	 2	    1.10000	    0.90000;
	106	 1	 0.0	 0.0	 0.0	 0.0	 1	    1.00000	    0.00000	 138.0	 2	    1.10000	    0.90000;
	107	 1	 3.008	 0.351	 0.0	 0.0	 1	    1.00000	    0.00000	 138.0	 2	    1.10000	    0.90000;
	108	 1	 3.764	 1.096	 0.0	 0.0	 1	    1.00000	    0.00000	 138.0	 2	    1.10000	    0.90000;
	109	 1	 3.079	 1.271	 0.0	 0.0	 1	    1.00000	    0.00000	 138.0	 2	    1.10000	    0.90000;
	110	 1	 2.279	 0.926	 0.0	 0.0	 1	    1.00000	    0.00000	 138.0	 2	    1.10000	    0.90000;
	111	 1	 0.8	 0.29	 0.0	 0.0	 1	    1.00000	    0.00000	 138.0	 2	    1.10000	    0.90000;
	112	 1	 0.981	 0.416	 0.0	 0.0	 1	    1.00000	    0.00000	 138.0	 2	    1.10000	    0.90000;
	113	 1	 0.915	 0.405	 0.0	 0.0	 1	    1.00000	    0.00000	 138.0	 2	    1.10000	    0.90000;
	114	 1	 1.704	 0.471	 0.0	 0.0	 1	    1.00000	    0.00000	 138.0	 2	    1.10000	    0.90000;
	115	 1	 2.614	 0.296	 0.0	 0.0	 1	    1.00000	    0.00000	 138.0	 2	    1.10000	    0.90000;
	116	 1	 3.879	 0.981	 0.0	 0.0	 1	    1.00000	    0.00000	 138.0	 2	    1.10000	    0.90000;
	117	 1	 6.274	 2.542	 0.0	 3.51187827085	 1	    1.00000	    0.00000	 138.0	 2	    1.10000	    0.90000;
	118	 1	 4.619	 1.847	 0.0	 0.0	 1	    1.00000	    0.00000	 138.0	 2	    1.10000	    0.90000;
	119	 1	 3.71	 -0.932	 0.0	 0.0	 1	    1.00000	    0.00000	 138.0	 2	    1.10000	    0.90000;
	120	 2	 11.984	 6.937	 0.0	 0.0	 1	    1.00000	    0.00000	 138.0	 2	    1.10000	    0.90000;
	121	 1	 13.688	 12.707	 0.0	 0.0	 1	    1.00000	    0.00000	 138.0	 2	    1.10000	    0.90000;
	122	 1	 7.984	 2.312	 0.0	 0.0	 1	    1.00000	    0.00000	 138.0	 2	    1.10000	    0.90000;
	123	 1	 8.838	 2.597	 0.0	 0.0	 1	    1.00000	    0.00000	 138.0	 2	    1.10000	    0.90000;
	124	 1	 2.926	 0.97	 0.0	 0.0	 1	    1.00000	    0.00000	 138.0	 2	    1.10000	    0.90000;
	125	 1	 3.107	 3.2	 0.0	 0.0	 1	    1.00000	    0.00000	 138.0	 2	    1.10000	    0.90000;
	126	 1	 4.219	 1.732	 0.0	 0.0	 1	    1.00000	    0.00000	 138.0	 2	    1.10000	    0.90000;
	127	 1	 0.0	 0.0	 0.0	 0.0	 1	    1.00000	    0.00000	 138.0	 2	    1.10000	    0.90000;
	128	 1	 4.055	 1.392	 0.0	 0.0	 1	    1.00000	    0.00000	 138.0	 2	    1.10000	    0.90000;
	129	 1	 0.658	 0.258	 0.0	 0.0	 1	    1.00000	    0.00000	 138.0	 2	    1.10000	    0.90000;
	130	 1	 3.134	 1.271	 0.0	 0.0	 1	    1.00000	    0.00000	 138.0	 2	    1.10000	    0.90000;
	131	 1	 3.195	 1.271	 0.0	 0.0	 1	    1.00000	    0.00000	 138.0	 2	    1.10000	    0.90000;
	132	 1	 3.425	 0.953	 0.0	 0.0	 1	    1.00000	    0.00000	 138.0	 2	    1.10000	    0.90000;
	133	 1	 3.425	 0.953	 0.0	 0.0	 1	    1.00000	    0.00000	 138.0	 2	    1.10000	    0.90000;
	134	 1	 0.345	 0.115	 0.0	 0.0	 1	    1.00000	    0.00000	 138.0	 2	    1.10000	    0.90000;
	135	 2	 7.195	 2.893	 0.0	 0.0	 1	    1.00000	    0.00000	 138.0	 2	    1.10000	    0.90000;
	136	 1	 5.134	 1.978	 0.0	 0.0	 1	    1.00000	    0.00000	 138.0	 2	    1.10000	    0.90000;
	137	 1	 2.564	 1.041	 0.0	 0.0	 1	    1.00000	    0.00000	 138.0	 2	    1.10000	    0.90000;
	138	 1	 3.54	 1.392	 0.0	 4.1998700159	 1	    1.00000	    0.00000	 138.0	 2	    1.10000	    0.90000;
	139	 1	 11.923	 3.342	 0.0	 0.0	 1	    1.00000	    0.00000	 138.0	 2	    1.10000	    0.90000;
	140	 1	 1.14	 0.46	 0.0	 0.0	 1	    1.00000	    0.00000	 138.0	 2	    1.10000	    0.90000;
	141	 1	 1.485	 0.575	 0.0	 0.0	 1	    1.00000	    0.00000	 138.0	 2	    1.10000	    0.90000;
	142	 1	 2.225	 0.29	 0.0	 0.0	 1	    1.00000	    0.00000	 138.0	 2	    1.10000	    0.90000;
	143	 1	 0.0	 0.0	 0.0	 0.0	 1	    1.00000	    0.00000	 138.0	 2	    1.10000	    0.90000;
	144	 1	 0.0	 0.0	 0.0	 0.0	 1	    1.00000	    0.00000	 138.0	 2	    1.10000	    0.90000;
	145	 1	 0.0	 0.0	 0.0	 0.0	 1	    1.00000	    0.00000	 138.0	 2	    1.10000	    0.90000;
	146	 1	 4.619	 1.677	 0.0	 0.0	 1	    1.00000	    0.00000	 138.0	 2	    1.10000	    0.90000;
	147	 1	 2.055	 0.46	 0.0	 0.0	 1	    1.00000	    0.00000	 138.0	 2	    1.10000	    0.90000;
	148	 1	 15.458	 5.66	 0.0	 0.0	 1	    1.00000	    0.00000	 138.0	 2	    1.10000	    0.90000;
	149	 1	 0.855	 0.345	 0.0	 0.0	 1	    1.00000	    0.00000	 138.0	 2	    1.10000	    0.90000;
	150	 2	 347.397	 0.0	 0.0	 0.0	 1	    1.00000	    0.00000	 345.0	 2	    1.10000	    0.90000;
	151	 1	 44.658	 47.066	 0.0	 0.0	 1	    1.00000	    0.00000	 345.0	 3	    1.10000	    0.90000;
	152	 1	 0.0	 0.0	 0.0	 0.0	 1	    1.00000	    0.00000	 500.0	 3	    1.10000	    0.90000;
	153	 1	 0.0	 0.0	 0.0	 -11.354	 1	    1.00000	    0.00000	 500.0	 3	    1.10000	    0.90000;
	154	 1	 0.0	 0.0	 0.0	 0.0	 1	    1.00000	    0.00000	 500.0	 3	    1.10000	    0.90000;
	155	 1	 0.0	 0.0	 0.0	 0.0	 1	    1.00000	    0.00000	 500.0	 3	    1.10000	    0.90000;
	156	 1	 84.714	 39.301	 0.0	 75.294	 1	    1.00000	    0.00000	 500.0	 3	    1.10000	    0.90000;
	157	 1	 0.0	 0.0	 0.0	 -27.072	 1	    1.00000	    0.00000	 345.0	 3	    1.10000	    0.90000;
	158	 1	 0.0	 0.0	 0.0	 -322.112	 1	    1.00000	    0.00000	 500.0	 3	    1.10000	    0.90000;
	159	 1	 0.0	 0.0	 0.0	 0.0	 1	    1.00000	    0.00000	 500.0	 3	    1.10000	    0.90000;
	160	 1	 0.0	 0.0	 0.0	 0.0	 1	    1.00000	    0.00000	 500.0	 3	    1.10000	    0.90000;
	161	 1	 0.0	 0.0	 0.0	 -124.239	 1	    1.00000	    0.00000	 500.0	 3	    1.10000	    0.90000;
	162	 1	 19.021	 32.965	 0.0	 0.0	 1	    1.00000	    0.00000	 500.0	 3	    1.10000	    0.90000;
	163	 1	 0.0	 0.0	 0.0	 0.00335811035315	 1	    1.00000	    0.00000	 500.0	 3	    1.10000	    0.90000;
	164	 1	 0.0	 0.0	 0.0	 0.0	 1	    1.00000	    0.00000	 500.0	 3	    1.10000	    0.90000;
	165	 1	 6.027	 21.918	 0.0	 0.0	 1	    1.00000	    0.00000	 500.0	 3	    1.10000	    0.90000;
	166	 2	 2.74	 5.479	 0.0	 0.0	 1	    1.00000	    0.00000	 500.0	 3	    1.10000	    0.90000;
	167	 1	 3.797	 1.704	 0.0	 0.0	 1	    1.00000	    0.00000	 138.0	 3	    1.10000	    0.90000;
	168	 2	 8.027	 0.548	 0.0	 0.0	 1	    1.00000	    0.00000	 138.0	 3	    1.10000	    0.90000;
	169	 1	 4.46	 0.723	 0.0	 0.0	 1	    1.00000	    0.00000	 138.0	 3	    1.10000	    0.90000;
	170	 1	 7.764	 2.312	 0.0	 0.0	 1	    1.00000	    0.00000	 138.0	 3	    1.10000	    0.90000;
	171	 1	 2.312	 0.548	 0.0	 0.0	 1	    1.00000	    0.00000	 138.0	 3	    1.10000	    0.90000;
	172	 1	 72.279	 31.264	 0.0	 16.0407575511	 1	    1.00000	    0.00000	 138.0	 3	    1.10000	    0.90000;
	173	 1	 0.0	 0.0	 0.0	 0.000126326795128	 1	    1.00000	    0.00000	 32.0	 3	    1.10000	    0.90000;
	174	 1	 0.0	 0.0	 0.0	 0.0	 1	    1.00000	    0.00000	 138.0	 3	    1.10000	    0.90000;
	175	 1	 2.86	 1.156	 0.0	 0.0	 1	    1.00000	    0.00000	 138.0	 3	    1.10000	    0.90000;
	176	 1	 1.43	 0.548	 0.0	 0.0	 1	    1.00000	    0.00000	 138.0	 3	    1.10000	    0.90000;
	177	 1	 0.005	 0.005	 0.0	 0.0	 1	    1.00000	    0.00000	 138.0	 3	    1.10000	    0.90000;
	178	 2	 0.005	 0.005	 0.0	 0.0	 1	    1.00000	    0.00000	 138.0	 3	    1.10000	    0.90000;
	179	 1	 8.586	 2.86	 0.0	 0.0	 1	    1.00000	    0.00000	 138.0	 3	    1.10000	    0.90000;
	180	 1	 9.195	 2.586	 0.0	 0.0	 1	    1.00000	    0.00000	 138.0	 3	    1.10000	    0.90000;
	181	 1	 2.312	 0.274	 0.0	 0.0	 1	    1.00000	    0.00000	 138.0	 3	    1.10000	    0.90000;
	182	 1	 5.945	 0.548	 0.0	 0.0	 1	    1.00000	    0.00000	 138.0	 3	    1.10000	    0.90000;
	183	 2	 8.038	 1.704	 0.0	 0.0	 1	    1.00000	    0.00000	 138.0	 3	    1.10000	    0.90000;
	184	 1	 4.132	 0.548	 0.0	 0.0	 1	    1.00000	    0.00000	 138.0	 3	    1.10000	    0.90000;
	185	 2	 1.156	 0.274	 0.0	 0.0	 1	    1.00000	    0.00000	 138.0	 3	    1.10000	    0.90000;
	186	 1	 3.14	 0.548	 0.0	 0.0	 1	    1.00000	    0.00000	 138.0	 3	    1.10000	    0.90000;
	187	 1	 0.0	 0.0	 0.0	 55.9920014246	 1	    1.00000	    0.00000	 16.0	 3	    1.10000	    0.90000;
	188	 2	 5.178	 1.43	 0.0	 5.27387853308	 1	    1.00000	    0.00000	 138.0	 3	    1.10000	    0.90000;
	189	 1	 2.312	 0.548	 0.0	 0.0	 1	    1.00000	    0.00000	 138.0	 3	    1.10000	    0.90000;
	190	 1	 0.0	 0.0	 0.0	 0.0156527920741	 1	    1.00000	    0.00000	 138.0	 3	    1.10000	    0.90000;
	191	 1	 8.586	 1.43	 0.0	 0.0	 1	    1.00000	    0.00000	 138.0	 3	    1.10000	    0.90000;
	192	 1	 10.899	 3.742	 0.0	 0.0	 1	    1.00000	    0.00000	 138.0	 3	    1.10000	    0.90000;
	193	 1	 4.57	 1.485	 0.0	 0.0	 1	    1.00000	    0.00000	 138.0	 3	    1.10000	    0.90000;
	194	 1	 9.195	 3.468	 0.0	 0.0	 1	    1.00000	    0.00000	 138.0	 3	    1.10000	    0.90000;
	195	 2	 8.038	 1.704	 0.0	 0.0	 1	    1.00000	    0.00000	 138.0	 3	    1.10000	    0.90000;
	196	 1	 3.179	 -0.123	 0.0	 0.0	 1	    1.00000	    0.00000	 138.0	 3	    1.10000	    0.90000;
	197	 1	 4.016	 1.156	 0.0	 0.0	 1	    1.00000	    0.00000	 138.0	 3	    1.10000	    0.90000;
	198	 1	 2.86	 0.274	 0.0	 0.0	 1	    1.00000	    0.00000	 138.0	 3	    1.10000	    0.90000;
	199	 1	 0.0	 0.0	 0.0	 -2.49761461351	 1	    1.00000	    0.00000	 138.0	 3	    1.10000	    0.90000;
	200	 1	 0.0	 0.0	 0.0	 -18.0621211952	 1	    1.00000	    0.00000	 138.0	 3	    1.10000	    0.90000;
...
];

%% generator data
%	bus	Pg	Qg	Qmax	Qmin	Vg	mBase	status	Pmax	Pmin
mpc.gen = [
	9	 0.0	 0.0	 93.531	 -93.531	 1.0	 252.98	 0	 301.471	 135.0;
	10	 0.0	 0.0	 155.693	 -155.693	 1.0	 267.71	 0	 501.832	 171.516;
	10	 0.0	 0.0	 162.14	 -162.14	 1.0	 256.16	 0	 522.609	 178.876;
	11	 0.0	 0.0	 20.075	 -20.075	 1.0	 55.0	 0	 64.706	 35.833;
	12	 0.0	 0.0	 20.075	 -20.075	 1.0	 55.0	 0	 64.706	 35.833;
	24	 45.3265	 0.0	 27.194	 -27.194	 1.0	 100.0	 1	 87.653	 3.0;
	26	 0.0	 0.0	 5.475	 -5.475	 1.0	 15.0	 0	 17.647	 3.0;
	46	 8.559	 0.0	 4.38	 -4.38	 1.0	 12.0	 1	 14.118	 3.0;
	68	 218.2355	 0.0	 93.531	 -93.531	 1.0	 267.05	 1	 301.471	 135.0;
	75	 0.0	 0.0	 74.825	 -74.825	 1.0	 253.76	 0	 241.176	 135.0;
	76	 186.4705	 0.0	 84.68	 -84.68	 1.0	 232.0	 1	 272.941	 100.0;
	77	 0.0	 0.0	 91.25	 -91.25	 1.0	 268.92	 0	 294.118	 90.0;
	77	 152.827	 0.0	 90.313	 -90.313	 1.0	 100.0	 1	 291.099	 14.555;
	78	 107.381	 0.0	 63.457	 -63.457	 1.0	 100.0	 1	 204.535	 10.227;
	92	 0.0	 0.0	 81.03	 -81.03	 1.0	 222.0	 0	 261.176	 90.0;
	95	 0.0	 0.0	 104.755	 -104.755	 1.0	 2.04	 0	 337.647	 16.882;
	98	 0.0	 0.0	 24.044	 -24.044	 1.0	 65.75	 0	 77.5	 10.0;
	98	 158.059	 0.0	 97.455	 -97.455	 1.0	 6.0	 1	 314.118	 2.0;
	99	 154.6175	 0.0	 95.63	 -95.63	 1.0	 6.47	 1	 308.235	 1.0;
	112	 0.0	 0.0	 101.47	 -101.47	 1.0	 0.26	 0	 327.059	 16.353;
	112	 0.0	 0.0	 105.12	 -105.12	 1.0	 1.36	 0	 338.824	 1.0;
	120	 14.2645	 0.0	 7.3	 -7.3	 1.0	 20.0	 1	 23.529	 5.0;
	125	 0.0	 0.0	 23.725	 -23.725	 1.0	 65.0	 0	 76.471	 40.0;
	127	 0.0	 0.0	 11.315	 -11.315	 1.0	 31.0	 0	 36.471	 3.0;
	128	 0.0	 0.0	 11.315	 -11.315	 1.0	 31.0	 0	 36.471	 3.0;
	135	 168.7355	 0.0	 104.39	 -104.39	 1.0	 2.03	 1	 336.471	 1.0;
	138	 0.0	 0.0	 94.9	 -94.9	 1.0	 0.24	 0	 305.882	 15.294;
	150	 165.5295	 0.0	 97.82	 -97.82	 1.0	 108.13	 1	 315.294	 15.765;
	165	 0.0	 0.0	 65.335	 -65.335	 1.0	 216.55	 0	 210.588	 10.529;
	165	 0.0	 0.0	 65.335	 -65.335	 1.0	 179.0	 0	 210.588	 10.529;
	165	 0.0	 0.0	 65.335	 -65.335	 1.0	 179.0	 0	 210.588	 10.529;
	166	 107.094	 0.0	 65.335	 -65.335	 1.0	 179.0	 1	 210.588	 3.6;
	168	 45.353	 0.0	 20.075	 -20.075	 1.0	 58.99	 1	 64.706	 26.0;
	171	 0.0	 0.0	 103.66	 -103.66	 1.0	 0.36	 0	 334.118	 16.706;
	177	 0.0	 0.0	 6.57	 -6.57	 1.0	 18.0	 0	 21.176	 3.0;
	178	 14.441	 0.0	 8.03	 -8.03	 1.0	 22.0	 1	 25.882	 3.0;
	183	 159.604	 0.0	 95.63	 -95.63	 1.0	 0.24	 1	 308.235	 10.973;
	185	 162.088	 0.0	 99.645	 -99.645	 1.0	 100.0	 1	 321.176	 3.0;
	188	 176.3825	 0.0	 109.135	 -109.135	 1.0	 2.0	 1	 351.765	 1.0;
	194	 0.0	 0.0	 103.66	 -103.66	 1.0	 1.0	 0	 334.118	 16.706;
	195	 152.088	 0.0	 93.44	 -93.44	 1.0	 1.08	 1	 301.176	 3.0;
	201	 179.7355	 0.0	 106.215	 -106.215	 1.0	 0.12	 1	 342.353	 17.118;
	207	 0.0	 0.0	 107.31	 -107.31	 1.0	 9.0	 0	 345.882	 17.294;
	209	 0.0	 0.0	 95.265	 -95.265	 1.0	 0.24	 0	 307.059	 15.353;
	217	 105.627	 0.0	 62.42	 -62.42	 1.0	 100.0	 1	 201.194	 10.06;
	223	 0.0	 0.0	 98.101	 -98.101	 1.0	 282.49	 0	 316.2	 120.0;
	224	 218.0885	 0.0	 98.094	 -98.094	 1.0	 281.34	 1	 316.177	 120.0;
	225	 218.2355	 0.0	 93.531	 -93.531	 1.0	 252.98	 1	 301.471	 135.0;
	246	 218.0885	 0.0	 98.094	 -98.094	 1.0	 273.78	 1	 316.177	 120.0;
	248	 37.2745	 0.0	 22.027	 -22.027	 1.0	 100.0	 1	 70.999	 3.55;
	252	 126.912	 0.0	 57.031	 -57.031	 1.0	 160.45	 1	 183.824	 70.0;
	252	 0.0	 0.0	 45.625	 -45.625	 1.0	 143.77	 0	 147.059	 70.0;
	274	 0.0	 0.0	 108.405	 -108.405	 1.0	 42.43	 0	 349.412	 17.471;
	282	 21.5	 0.0	 500.0	 -500.0	 1.0	 100.0	 1	 40.0	 3.0;
	289	 0.0	 0.0	 65.335	 -65.335	 1.0	 216.55	 0	 210.588	 10.529;
	289	 110.5585	 0.0	 65.335	 -65.335	 1.0	 179.0	 1	 210.588	 10.529;
	289	 0.0	 0.0	 65.335	 -65.335	 1.0	 179.0	 0	 210.588	 10.529;
	290	 0.0	 0.0	 65.335	 -65.335	 1.0	 179.0	 0	 210.588	 10.529;
	292	 45.353	 0.0	 20.075	 -20.075	 1.0	 58.99	 1	 64.706	 26.0;
	295	 0.0	 0.0	 108.04	 -108.04	 1.0	 0.36	 0	 348.235	 17.412;
	297	 21.5	 0.0	 547.5	 -547.5	 1.0	 100.0	 1	 40.0	 3.0;
	301	 0.0	 0.0	 6.57	 -6.57	 1.0	 18.0	 0	 21.176	 3.0;
	302	 0.0	 0.0	 8.03	 -8.03	 1.0	 22.0	 0	 25.882	 3.0;
	307	 0.0	 0.0	 107.31	 -107.31	 1.0	 0.24	 0	 345.882	 17.294;
	311	 21.5	 0.0	 547.5	 -547.5	 1.0	 100.0	 1	 40.0	 3.0;
	312	 0.0	 0.0	 94.17	 -94.17	 1.0	 2.0	 0	 303.529	 1.0;
	318	 179.2475	 0.0	 109.135	 -109.135	 1.0	 1.0	 1	 351.765	 6.73;
	319	 0.0	 0.0	 96.36	 -96.36	 1.0	 1.08	 0	 310.588	 15.529;
	325	 0.0	 0.0	 97.455	 -97.455	 1.0	 0.12	 0	 314.118	 15.706;
	331	 156.8825	 0.0	 92.71	 -92.71	 1.0	 9.0	 1	 298.824	 14.941;
	333	 0.0	 0.0	 97.455	 -97.455	 1.0	 0.24	 0	 314.118	 15.706;
	343	 0.0	 0.0	 147.451	 -147.451	 1.0	 100.0	 0	 475.266	 23.763;
	344	 249.5145	 0.0	 147.451	 -147.451	 1.0	 100.0	 1	 475.266	 23.763;
	345	 249.541	 0.0	 147.467	 -147.467	 1.0	 100.0	 1	 475.316	 23.766;
	347	 0.0	 0.0	 134.137	 -134.137	 1.0	 100.0	 0	 432.353	 21.618;
	349	 164.6585	 0.0	 98.55	 -98.55	 1.0	 100.0	 1	 317.647	 11.67;
	350	 0.0	 0.0	 98.55	 -98.55	 1.0	 100.0	 0	 317.647	 15.882;
	351	 0.0	 0.0	 98.55	 -98.55	 1.0	 100.0	 0	 317.647	 15.882;
	352	 166.7645	 0.0	 98.55	 -98.55	 1.0	 100.0	 1	 317.647	 15.882;
	353	 187.6105	 0.0	 110.869	 -110.869	 1.0	 100.0	 1	 357.353	 17.868;
	354	 0.0	 0.0	 110.869	 -110.869	 1.0	 100.0	 0	 357.353	 17.868;
	355	 0.0	 0.0	 98.961	 -98.961	 1.0	 100.0	 0	 318.971	 15.949;
	356	 167.46	 0.0	 98.961	 -98.961	 1.0	 100.0	 1	 318.971	 15.949;
	357	 167.46	 0.0	 98.961	 -98.961	 1.0	 100.0	 1	 318.971	 15.949;
	358	 214.2	 0.0	 126.582	 -126.582	 1.0	 100.0	 1	 408.0	 20.4;
	360	 0.0	 0.0	 145.242	 -145.242	 1.0	 100.0	 0	 468.145	 23.407;
	361	 0.0	 0.0	 145.242	 -145.242	 1.0	 100.0	 0	 468.145	 23.407;
	362	 0.0	 0.0	 145.242	 -145.242	 1.0	 100.0	 0	 468.145	 23.407;
	364	 224.669	 0.0	 132.769	 -132.769	 1.0	 100.0	 1	 427.941	 21.397;
	365	 0.0	 0.0	 132.769	 -132.769	 1.0	 100.0	 0	 427.941	 21.397;
	366	 135.496	 0.0	 80.072	 -80.072	 1.0	 100.0	 1	 258.088	 12.904;
	367	 0.0	 0.0	 80.072	 -80.072	 1.0	 100.0	 0	 258.088	 12.904;
	379	 482.7415	 0.0	 285.277	 -285.277	 1.0	 100.0	 1	 919.508	 45.975;
	385	 290.5635	 0.0	 171.709	 -171.709	 1.0	 100.0	 1	 553.454	 27.673;
	392	 0.0	 0.0	 148.427	 -148.427	 1.0	 100.0	 0	 478.409	 23.92;
	393	 0.0	 0.0	 148.282	 -148.282	 1.0	 100.0	 0	 477.944	 23.897;
	394	 0.0	 0.0	 148.411	 -148.411	 1.0	 100.0	 0	 478.359	 23.918;
	395	 0.0	 0.0	 148.387	 -148.387	 1.0	 100.0	 0	 478.281	 23.914;
	397	 0.0	 0.0	 134.137	 -134.137	 1.0	 100.0	 0	 432.353	 21.618;
	399	 0.0	 0.0	 134.137	 -134.137	 1.0	 100.0	 0	 432.353	 21.618;
	400	 0.0	 0.0	 134.137	 -134.137	 1.0	 100.0	 0	 432.353	 21.618;
	402	 0.0	 0.0	 98.55	 -98.55	 1.0	 100.0	 0	 317.647	 15.882;
	403	 0.0	 0.0	 98.55	 -98.55	 1.0	 100.0	 0	 317.647	 15.882;
	404	 166.7645	 0.0	 98.55	 -98.55	 1.0	 100.0	 1	 317.647	 15.882;
	405	 0.0	 0.0	 98.55	 -98.55	 1.0	 100.0	 0	 317.647	 15.882;
	406	 0.0	 0.0	 110.869	 -110.869	 1.0	 100.0	 0	 357.353	 17.868;
	407	 187.6105	 0.0	 110.869	 -110.869	 1.0	 100.0	 1	 357.353	 17.868;
	408	 0.0	 0.0	 98.961	 -98.961	 1.0	 100.0	 0	 318.971	 15.949;
	409	 0.0	 0.0	 98.961	 -98.961	 1.0	 100.0	 0	 318.971	 15.949;
	410	 167.46	 0.0	 98.961	 -98.961	 1.0	 100.0	 1	 318.971	 15.949;
	411	 0.0	 0.0	 126.582	 -126.582	 1.0	 100.0	 0	 408.0	 20.4;
	414	 0.0	 0.0	 115.659	 -115.659	 1.0	 100.0	 0	 372.794	 18.64;
	415	 187.897	 0.0	 115.659	 -115.659	 1.0	 100.0	 1	 372.794	 3.0;
	416	 0.0	 0.0	 115.659	 -115.659	 1.0	 100.0	 0	 372.794	 18.64;
	417	 242.7355	 0.0	 143.445	 -143.445	 1.0	 100.0	 1	 462.353	 23.118;
	418	 0.0	 0.0	 119.081	 -119.081	 1.0	 100.0	 0	 383.824	 19.191;
	419	 193.7195	 0.0	 119.081	 -119.081	 1.0	 100.0	 1	 383.824	 3.615;
	420	 0.0	 0.0	 114.975	 -114.975	 1.0	 100.0	 0	 370.588	 18.529;
	421	 0.0	 0.0	 148.443	 -148.443	 1.0	 100.0	 0	 478.464	 23.923;
	423	 0.0	 0.0	 30.112	 -30.112	 1.0	 100.0	 0	 97.059	 4.853;
	424	 50.956	 0.0	 30.112	 -30.112	 1.0	 100.0	 1	 97.059	 4.853;
	425	 0.0	 0.0	 30.797	 -30.797	 1.0	 100.0	 0	 99.265	 4.963;
	426	 0.0	 0.0	 30.797	 -30.797	 1.0	 100.0	 0	 99.265	 4.963;
	427	 0.0	 0.0	 30.797	 -30.797	 1.0	 100.0	 0	 99.265	 4.963;
	428	 0.0	 0.0	 30.797	 -30.797	 1.0	 100.0	 0	 99.265	 4.963;
	430	 0.0	 0.0	 132.769	 -132.769	 1.0	 100.0	 0	 427.941	 21.397;
	431	 224.669	 0.0	 132.769	 -132.769	 1.0	 100.0	 1	 427.941	 21.397;
	432	 0.0	 0.0	 80.072	 -80.072	 1.0	 100.0	 0	 258.088	 12.904;
	433	 0.0	 0.0	 80.072	 -80.072	 1.0	 100.0	 0	 258.088	 12.904;
	444	 254.906	 0.0	 150.637	 -150.637	 1.0	 100.0	 1	 485.535	 24.277;
	445	 211.2385	 0.0	 124.832	 -124.832	 1.0	 100.0	 1	 402.359	 20.118;
	452	 263.841	 0.0	 155.917	 -155.917	 1.0	 100.0	 1	 502.554	 25.128;
	453	 0.0	 0.0	 155.856	 -155.856	 1.0	 100.0	 0	 502.356	 25.118;
	455	 263.3785	 0.0	 155.644	 -155.644	 1.0	 100.0	 1	 501.673	 25.084;
	456	 0.0	 0.0	 155.66	 -155.66	 1.0	 100.0	 0	 501.726	 25.086;
	457	 0.0	 0.0	 127.567	 -127.567	 1.0	 100.0	 0	 411.176	 20.559;
	458	 0.0	 0.0	 127.567	 -127.567	 1.0	 100.0	 0	 411.176	 20.559;
	459	 263.118	 0.0	 155.49	 -155.49	 1.0	 100.0	 1	 501.177	 25.059;
	460	 0.0	 0.0	 125.925	 -125.925	 1.0	 100.0	 0	 405.882	 20.294;
	461	 0.0	 0.0	 125.925	 -125.925	 1.0	 100.0	 0	 405.882	 20.294;
	462	 0.0	 0.0	 155.811	 -155.811	 1.0	 100.0	 0	 502.212	 25.111;
	463	 21.5	 0.0	 547.5	 -547.5	 1.0	 100.0	 1	 40.0	 3.0;
	464	 0.0	 0.0	 155.835	 -155.835	 1.0	 100.0	 0	 502.287	 25.114;
	465	 262.3935	 0.0	 155.835	 -155.835	 1.0	 100.0	 1	 502.287	 22.5;
	468	 246.0535	 0.0	 145.406	 -145.406	 1.0	 100.0	 1	 468.673	 23.434;
	469	 487.639	 0.0	 288.172	 -288.172	 1.0	 100.0	 1	 928.836	 46.442;
	470	 685.066	 0.0	 404.842	 -404.842	 1.0	 100.0	 1	 1304.888	 65.244;
	480	 0.0	 0.0	 227.759	 -227.759	 1.0	 100.0	 0	 734.113	 36.706;
	488	 107.23	 0.0	 63.368	 -63.368	 1.0	 100.0	 1	 204.248	 10.212;
	489	 107.0835	 0.0	 63.282	 -63.282	 1.0	 100.0	 1	 203.969	 10.198;
	507	 23.9995	 0.0	 13.961	 -13.961	 1.0	 100.0	 1	 44.999	 3.0;
	509	 0.0	 0.0	 28.47	 -28.47	 1.0	 78.0	 0	 91.765	 11.0;
	527	 0.0	 0.0	 31.481	 -31.481	 1.0	 83.96	 0	 101.471	 21.0;
	546	 0.0	 0.0	 98.083	 -98.083	 1.0	 258.66	 0	 316.143	 15.807;
	558	 17.4845	 0.0	 9.919	 -9.919	 1.0	 100.0	 1	 31.969	 3.0;
	588	 0.0	 0.0	 98.094	 -98.094	 1.0	 282.49	 0	 316.177	 120.0;
	589	 0.0	 0.0	 98.094	 -98.094	 1.0	 281.34	 0	 316.177	 120.0;
	594	 0.0	 0.0	 93.531	 -93.531	 1.0	 252.98	 0	 301.471	 135.0;
	595	 0.0	 0.0	 98.094	 -98.094	 1.0	 267.71	 0	 316.177	 135.0;
	595	 0.0	 0.0	 93.531	 -93.531	 1.0	 256.16	 0	 301.471	 135.0;
	596	 0.0	 0.0	 99.134	 -99.134	 1.0	 270.08	 0	 319.529	 135.0;
	596	 0.0	 0.0	 97.048	 -97.048	 1.0	 246.1	 0	 312.807	 135.0;
	600	 0.0	 0.0	 20.075	 -20.075	 1.0	 55.0	 0	 64.706	 35.833;
	601	 50.2695	 0.0	 20.075	 -20.075	 1.0	 55.0	 1	 64.706	 35.833;
	606	 0.0	 0.0	 6.205	 -6.205	 1.0	 17.0	 0	 20.0	 3.0;
	630	 10.3235	 0.0	 5.475	 -5.475	 1.0	 15.0	 1	 17.647	 3.0;
	634	 0.0	 0.0	 98.094	 -98.094	 1.0	 273.78	 0	 316.177	 120.0;
	653	 8.559	 0.0	 4.38	 -4.38	 1.0	 12.0	 1	 14.118	 3.0;
	654	 0.0	 0.0	 92.345	 -92.345	 1.0	 14.4	 0	 297.647	 14.882;
	686	 51.79	 0.0	 30.606	 -30.606	 1.0	 100.0	 1	 98.648	 4.932;
	687	 0.0	 0.0	 93.531	 -93.531	 1.0	 267.05	 0	 301.471	 135.0;
	689	 218.2355	 0.0	 93.531	 -93.531	 1.0	 258.02	 1	 301.471	 135.0;
	694	 155.6475	 0.0	 91.98	 -91.98	 1.0	 34.76	 1	 296.471	 14.824;
	695	 0.0	 0.0	 94.17	 -94.17	 1.0	 42.43	 0	 303.529	 15.176;
	696	 0.0	 0.0	 97.82	 -97.82	 1.0	 19.32	 0	 315.294	 15.765;
	697	 245.8815	 0.0	 145.304	 -145.304	 1.0	 100.0	 1	 468.346	 23.417;
	701	 0.0	 0.0	 91.98	 -91.98	 1.0	 1.0	 0	 296.471	 14.824;
	704	 0.0	 0.0	 4.745	 -4.745	 1.0	 13.0	 0	 15.294	 2.0;
	708	 0.0	 0.0	 24.234	 -24.234	 1.0	 67.62	 0	 78.112	 26.0;
	710	 47.1685	 0.0	 27.874	 -27.874	 1.0	 100.0	 1	 89.845	 4.492;
	732	 0.0	 0.0	 103.295	 -103.295	 1.0	 3.0	 0	 332.941	 16.647;
	733	 0.0	 0.0	 5.475	 -5.475	 1.0	 15.0	 0	 17.647	 3.0;
	739	 163.0585	 0.0	 96.36	 -96.36	 1.0	 4.0	 1	 310.588	 15.529;
	756	 373.6765	 0.0	 157.406	 -157.406	 1.0	 449.45	 1	 507.353	 240.0;
	757	 0.0	 0.0	 168.812	 -168.812	 1.0	 455.56	 0	 544.118	 240.0;
	757	 337.647	 0.0	 135.05	 -135.05	 1.0	 397.31	 1	 435.294	 240.0;
	758	 998.3845	 0.0	 617.946	 -617.946	 1.0	 616.84	 1	 1991.769	 5.0;
	758	 998.3845	 0.0	 617.946	 -617.946	 1.0	 616.84	 1	 1991.769	 5.0;
	758	 998.3845	 0.0	 617.946	 -617.946	 1.0	 616.84	 1	 1991.769	 5.0;
	759	 392.059	 0.0	 168.812	 -168.812	 1.0	 451.84	 1	 544.118	 240.0;
	759	 0.0	 0.0	 155.125	 -155.125	 1.0	 416.51	 0	 500.0	 240.0;
	759	 370.0	 0.0	 155.125	 -155.125	 1.0	 416.51	 1	 500.0	 240.0;
	784	 377.353	 0.0	 159.688	 -159.688	 1.0	 477.9	 1	 514.706	 240.0;
	792	 0.0	 0.0	 10.95	 -10.95	 1.0	 30.0	 0	 35.294	 3.0;
	805	 0.0	 0.0	 100.74	 -100.74	 1.0	 1.08	 0	 324.706	 16.235;
	805	 0.0	 0.0	 96.36	 -96.36	 1.0	 1.0	 0	 310.588	 15.529;
	805	 169.2355	 0.0	 100.01	 -100.01	 1.0	 1.0	 1	 322.353	 16.118;
	809	 0.0	 0.0	 21.9	 -21.9	 1.0	 60.0	 0	 70.588	 25.0;
	812	 157.8925	 0.0	 97.455	 -97.455	 1.0	 4.33	 1	 314.118	 1.667;
	830	 0.0	 0.0	 100.74	 -100.74	 1.0	 0.43	 0	 324.706	 16.235;
...
];

%% generator cost data
%	2	startup	shutdown	n	c(n-1)	...	c0
mpc.gencost = [
	2	 0.0	 0.0	 3	   0.000000	   1.796000	 7812.000000;
	2	 0.0	 0.0	 3	   0.000000	   4.025000	 17120.000000;
	2	 0.0	 0.0	 3	   0.000000	   3.483000	 16020.000000;
	2	 0.0	 0.0	 3	   0.000000	  42.270000	 1258.000000;
	2	 0.0	 0.0	 3	   0.000000	  28.510000	 1864.000000;
	2	 0.0	 0.0	 3	   0.000000	   9.723000	 238.000000;
	2	 0.0	 0.0	 3	   0.000000	  56.190000	 116.600000;
	2	 0.0	 0.0	 3	   0.000000	  25.960000	  99.670000;
	2	 0.0	 0.0	 3	   0.000000	   2.005000	 7668.000000;
	2	 0.0	 0.0	 3	   0.059040	  35.310000	 7969.000000;
	2	 0.0	 0.0	 3	   0.022750	  26.830000	 7297.000000;
	2	 0.0	 0.0	 3	   0.016100	  23.730000	 6939.000000;
	2	 0.0	 0.0	 3	   0.008794	  19.390000	 1239.000000;
	2	 0.0	 0.0	 3	   0.017770	  27.610000	 815.100000;
	2	 0.0	 0.0	 3	   0.022860	  27.650000	 6526.000000;
	2	 0.0	 0.0	 3	   0.000000	   0.824300	 1285.000000;
	2	 0.0	 0.0	 3	   0.000000	  12.790000	 361.000000;
	2	 0.0	 0.0	 3	   0.000000	   2.416000	 150.000000;
	2	 0.0	 0.0	 3	   0.000000	   2.678000	 101.200000;
	2	 0.0	 0.0	 3	   0.000000	   1.279000	 1043.000000;
	2	 0.0	 0.0	 3	   0.000000	   1.690000	  80.830000;
	2	 0.0	 0.0	 3	   1.550000	   7.233000	 268.000000;
	2	 0.0	 0.0	 3	   0.000000	  36.650000	 4912.000000;
	2	 0.0	 0.0	 3	   0.000000	   5.708000	 165.300000;
	2	 0.0	 0.0	 3	   0.000000	   5.867000	 270.900000;
	2	 0.0	 0.0	 3	   0.000000	   1.762000	  93.660000;
	2	 0.0	 0.0	 3	   0.000000	   1.158000	 1013.000000;
	2	 0.0	 0.0	 3	   0.000000	   1.254000	 1116.000000;
	2	 0.0	 0.0	 3	   0.016770	  26.820000	 821.900000;
	2	 0.0	 0.0	 3	   0.016770	  26.820000	 839.900000;
	2	 0.0	 0.0	 3	   0.016770	  26.820000	 803.900000;
	2	 0.0	 0.0	 3	   0.146100	   0.000000	 373.700000;
	2	 0.0	 0.0	 3	   0.000000	  15.060000	 820.100000;
	2	 0.0	 0.0	 3	   0.000000	   1.434000	 1135.000000;
	2	 0.0	 0.0	 3	   0.000000	  51.540000	  99.340000;
	2	 0.0	 0.0	 3	   2.452000	 110.800000	 -211.200000;
	2	 0.0	 0.0	 3	   0.000000	   0.474000	 787.600000;
	2	 0.0	 0.0	 3	   0.000000	   2.575000	 322.900000;
	2	 0.0	 0.0	 3	   0.000000	   1.293000	  99.840000;
	2	 0.0	 0.0	 3	   0.000000	   1.112000	 1212.000000;
	2	 0.0	 0.0	 3	   0.000000	   1.217000	 211.800000;
	2	 0.0	 0.0	 3	   0.000000	   0.919100	 1020.000000;
	2	 0.0	 0.0	 3	   0.000000	   1.171000	 1186.000000;
	2	 0.0	 0.0	 3	   0.000000	   1.273000	 923.200000;
	2	 0.0	 0.0	 3	   0.018370	  28.070000	 762.000000;
	2	 0.0	 0.0	 3	   0.000000	   1.055000	 8458.000000;
	2	 0.0	 0.0	 3	   0.000000	   2.175000	 7549.000000;
	2	 0.0	 0.0	 3	   0.000000	   0.368500	 8809.000000;
	2	 0.0	 0.0	 3	   0.000000	   1.019000	 8174.000000;
	2	 0.0	 0.0	 3	   0.000000	  18.110000	 177.100000;
	2	 0.0	 0.0	 3	   0.051490	  40.590000	 1679.000000;
	2	 0.0	 0.0	 3	   0.111500	  55.060000	 2769.000000;
	2	 0.0	 0.0	 3	   0.000000	   1.876000	 1436.000000;
	2	 0.0	 0.0	 3	   0.398100	   8.848000	 182.300000;
	2	 0.0	 0.0	 3	   0.016770	  26.820000	 815.900000;
	2	 0.0	 0.0	 3	   0.016770	  26.820000	 833.900000;
	2	 0.0	 0.0	 3	   0.016770	  26.820000	 845.900000;
	2	 0.0	 0.0	 3	   0.016770	  26.820000	 815.900000;
	2	 0.0	 0.0	 3	   0.000000	  47.680000	 370.700000;
	2	 0.0	 0.0	 3	   0.000000	   2.487000	 1418.000000;
	2	 0.0	 0.0	 3	   0.000000	  18.240000	 271.500000;
	2	 0.0	 0.0	 3	   0.000000	  13.830000	  92.570000;
	2	 0.0	 0.0	 3	   1.041000	  12.320000	 203.900000;
	2	 0.0	 0.0	 3	   0.000000	   1.143000	 1225.000000;
	2	 0.0	 0.0	 3	   0.000000	   4.968000	 288.200000;
	2	 0.0	 0.0	 3	   0.000000	   1.710000	 104.500000;
	2	 0.0	 0.0	 3	   0.000000	   1.713000	 420.500000;
	2	 0.0	 0.0	 3	   0.000000	   1.141000	 998.400000;
	2	 0.0	 0.0	 3	   0.000000	   1.259000	 1136.000000;
	2	 0.0	 0.0	 3	   0.008346	  18.890000	 1248.000000;
	2	 0.0	 0.0	 3	   0.000000	   1.482000	 1110.000000;
	2	 0.0	 0.0	 3	   0.000000	   1.461000	 1686.000000;
	2	 0.0	 0.0	 3	   0.000000	   0.802100	 1334.000000;
	2	 0.0	 0.0	 3	   0.000000	   0.910400	 1514.000000;
	2	 0.0	 0.0	 3	   0.000000	   1.108000	 1498.000000;
	2	 0.0	 0.0	 3	   0.000000	   0.995800	 852.900000;
	2	 0.0	 0.0	 3	   0.000000	   0.542800	 1098.000000;
	2	 0.0	 0.0	 3	   0.000000	   0.467000	 1084.000000;
	2	 0.0	 0.0	 3	   0.000000	   2.716000	 1719.000000;
	2	 0.0	 0.0	 3	   0.000000	   1.335000	 1244.000000;
	2	 0.0	 0.0	 3	   0.000000	   1.040000	 1265.000000;
	2	 0.0	 0.0	 3	   0.000000	   1.197000	 1157.000000;
	2	 0.0	 0.0	 3	   0.000000	   0.986400	 975.000000;
	2	 0.0	 0.0	 3	   0.000000	   1.036000	 946.000000;
	2	 0.0	 0.0	 3	   0.000000	   0.957900	 1260.000000;
	2	 0.0	 0.0	 3	   0.000000	   0.677800	 1833.000000;
	2	 0.0	 0.0	 3	   0.000000	   0.465300	 1664.000000;
	2	 0.0	 0.0	 3	   0.000000	   1.662000	 1735.000000;
	2	 0.0	 0.0	 3	   0.000000	   0.150900	 1443.000000;
	2	 0.0	 0.0	 3	   0.000000	   0.491700	 1470.000000;
	2	 0.0	 0.0	 3	   0.014700	  17.650000	 1050.000000;
	2	 0.0	 0.0	 3	   0.000000	  24.400000	 1118.000000;
	2	 0.0	 0.0	 3	   0.000000	   0.359700	 2362.000000;
	2	 0.0	 0.0	 3	   0.000000	   1.027000	 1786.000000;
	2	 0.0	 0.0	 3	   0.000000	   0.784100	 1607.000000;
	2	 0.0	 0.0	 3	   0.000000	   0.765300	 1471.000000;
	2	 0.0	 0.0	 3	   0.000000	   0.125300	 1610.000000;
	2	 0.0	 0.0	 3	   0.000000	   0.581900	 1805.000000;
	2	 0.0	 0.0	 3	   0.000000	   2.078000	 1819.000000;
	2	 0.0	 0.0	 3	   0.000000	   1.836000	 1583.000000;
	2	 0.0	 0.0	 3	   0.000000	   2.003000	 1737.000000;
	2	 0.0	 0.0	 3	   0.000000	   1.317000	 1013.000000;
	2	 0.0	 0.0	 3	   0.000000	   1.806000	 1107.000000;
	2	 0.0	 0.0	 3	   0.000000	   0.880800	 1044.000000;
	2	 0.0	 0.0	 3	   0.000000	   1.245000	 1149.000000;
	2	 0.0	 0.0	 3	   0.000000	   0.415100	 2467.000000;
	2	 0.0	 0.0	 3	   0.000000	   1.524000	 1198.000000;
	2	 0.0	 0.0	 3	   0.000000	   1.951000	 1015.000000;
	2	 0.0	 0.0	 3	   0.000000	   1.111000	 1043.000000;
	2	 0.0	 0.0	 3	   0.000000	   1.240000	 1129.000000;
	2	 0.0	 0.0	 3	   0.000000	   1.011000	 1314.000000;
	2	 0.0	 0.0	 3	   0.000000	   1.249000	 1342.000000;
	2	 0.0	 0.0	 3	   0.000000	   1.784000	 209.300000;
	2	 0.0	 0.0	 3	   0.000000	   1.067000	 1059.000000;
	2	 0.0	 0.0	 3	   0.000000	   0.935900	 1497.000000;
	2	 0.0	 0.0	 3	   0.000000	   1.248000	 1355.000000;
	2	 0.0	 0.0	 3	   0.000000	   0.801400	 270.500000;
	2	 0.0	 0.0	 3	   0.000000	   1.230000	 1269.000000;
	2	 0.0	 0.0	 3	   0.000000	   0.310000	 1647.000000;
	2	 0.0	 0.0	 3	   0.000000	   9.514000	 343.600000;
	2	 0.0	 0.0	 3	   0.000000	   8.257000	 370.400000;
	2	 0.0	 0.0	 3	   0.000000	  11.920000	 447.600000;
	2	 0.0	 0.0	 3	   0.000000	  11.920000	 405.600000;
	2	 0.0	 0.0	 3	   0.000000	  11.920000	 417.600000;
	2	 0.0	 0.0	 3	   0.046300	   2.324000	 400.500000;
	2	 0.0	 0.0	 3	   0.000000	   0.913300	 1339.000000;
	2	 0.0	 0.0	 3	   0.000000	   0.741300	 1649.000000;
	2	 0.0	 0.0	 3	   0.011180	  21.880000	 1070.000000;
	2	 0.0	 0.0	 3	   0.011180	  21.880000	 1082.000000;
	2	 0.0	 0.0	 3	   0.000000	   0.133000	 1602.000000;
	2	 0.0	 0.0	 3	   0.000000	   0.522900	 1406.000000;
	2	 0.0	 0.0	 3	   0.000000	   0.497900	 880.400000;
	2	 0.0	 0.0	 3	   0.000000	   1.268000	 977.700000;
	2	 0.0	 0.0	 3	   0.000000	   3.710000	 3175.000000;
	2	 0.0	 0.0	 3	   0.002262	   0.686200	 1779.000000;
	2	 0.0	 0.0	 3	   0.000000	   0.912300	 1402.000000;
	2	 0.0	 0.0	 3	   0.000000	   0.889600	 1244.000000;
	2	 0.0	 0.0	 3	   0.002267	   0.687000	 1771.000000;
	2	 0.0	 0.0	 3	   0.000000	   0.685700	 1558.000000;
	2	 0.0	 0.0	 3	   0.000000	   2.214000	 1683.000000;
	2	 0.0	 0.0	 3	   0.000000	   2.287000	 2297.000000;
	2	 0.0	 0.0	 3	   0.000000	  15.150000	 199.500000;
	2	 0.0	 0.0	 3	   0.000000	   2.571000	 2500.000000;
	2	 0.0	 0.0	 3	   0.000000	   2.275000	 2060.000000;
	2	 0.0	 0.0	 3	   0.000000	   0.597000	 1563.000000;
	2	 0.0	 0.0	 3	   0.000000	   0.425800	 3301.000000;
	2	 0.0	 0.0	 3	   0.000000	   0.113700	 8845.000000;
	2	 0.0	 0.0	 3	   0.001823	   6.198000	 3377.000000;
	2	 0.0	 0.0	 3	   0.000000	  30.830000	 795.100000;
	2	 0.0	 0.0	 3	   0.000000	  30.870000	 805.600000;
	2	 0.0	 0.0	 3	   0.000000	   5.261000	 186.100000;
	2	 0.0	 0.0	 3	   0.000000	   2.736000	 644.600000;
	2	 0.0	 0.0	 3	   0.102500	  63.340000	 778.800000;
	2	 0.0	 0.0	 3	   0.000000	   2.196000	 1118.000000;
	2	 0.0	 0.0	 3	   0.000000	   7.627000	 197.000000;
	2	 0.0	 0.0	 3	   0.000000	   2.097000	 7439.000000;
	2	 0.0	 0.0	 3	   0.000000	   2.316000	 8014.000000;
	2	 0.0	 0.0	 3	   0.000000	   1.830000	 9203.000000;
	2	 0.0	 0.0	 3	   0.000000	   2.391000	 8891.000000;
	2	 0.0	 0.0	 3	   0.000000	   0.846500	 8952.000000;
	2	 0.0	 0.0	 3	   0.000000	   4.441000	 14120.000000;
	2	 0.0	 0.0	 3	   0.000000	   2.550000	 9278.000000;
	2	 0.0	 0.0	 3	   0.000000	   7.437000	 1099.000000;
	2	 0.0	 0.0	 3	   0.000000	  10.080000	 2327.000000;
	2	 0.0	 0.0	 3	   0.000000	  17.120000	 222.000000;
	2	 0.0	 0.0	 3	   0.000000	  83.050000	  68.470000;
	2	 0.0	 0.0	 3	   0.000000	   1.996000	 7966.000000;
	2	 0.0	 0.0	 3	   0.000000	  67.340000	  50.280000;
	2	 0.0	 0.0	 3	   0.008412	  18.970000	 1242.000000;
	2	 0.0	 0.0	 3	   0.058840	   3.547000	 347.700000;
	2	 0.0	 0.0	 3	   0.000000	   0.368500	 8833.000000;
	2	 0.0	 0.0	 3	   0.000000	   1.201000	 9185.000000;
	2	 0.0	 0.0	 3	   0.008479	  19.040000	 1242.000000;
	2	 0.0	 0.0	 3	   0.000000	   0.496100	 1207.000000;
	2	 0.0	 0.0	 3	   0.000000	   1.049000	 825.200000;
	2	 0.0	 0.0	 3	   0.000000	   1.400000	 1885.000000;
	2	 0.0	 0.0	 3	   0.007944	  16.740000	 1160.000000;
	2	 0.0	 0.0	 3	   0.000000	  45.630000	  92.900000;
	2	 0.0	 0.0	 3	   0.000000	  11.560000	 1429.000000;
	2	 0.0	 0.0	 3	   0.000000	  13.470000	 375.500000;
	2	 0.0	 0.0	 3	   0.000000	   2.699000	 1398.000000;
	2	 0.0	 0.0	 3	   0.000000	  11.180000	 299.600000;
	2	 0.0	 0.0	 3	   0.000000	   2.788000	 1234.000000;
	2	 0.0	 0.0	 3	   0.000000	   4.435000	 21260.000000;
	2	 0.0	 0.0	 3	   0.000000	   2.375000	 18750.000000;
	2	 0.0	 0.0	 3	   0.000000	   1.361000	 15420.000000;
	2	 0.0	 0.0	 3	   0.000000	   0.495900	 408.300000;
	2	 0.0	 0.0	 3	   0.000000	   0.082390	 276.500000;
	2	 0.0	 0.0	 3	   0.000000	   0.464800	 271.400000;
	2	 0.0	 0.0	 3	   0.000000	   2.498000	 10630.000000;
	2	 0.0	 0.0	 3	   0.000000	   2.433000	 10510.000000;
	2	 0.0	 0.0	 3	   0.000000	   0.876900	 12080.000000;
	2	 0.0	 0.0	 3	   0.000000	   0.890500	 15970.000000;
	2	 0.0	 0.0	 3	   0.000000	   3.049000	 112.700000;
	2	 0.0	 0.0	 3	   0.000000	   2.138000	 1173.000000;
	2	 0.0	 0.0	 3	   0.000000	   1.281000	 882.400000;
	2	 0.0	 0.0	 3	   0.000000	   1.238000	 1078.000000;
	2	 0.0	 0.0	 3	   0.000000	  13.240000	 1178.000000;
	2	 0.0	 0.0	 3	   0.000000	   0.975200	 130.100000;
	2	 0.0	 0.0	 3	   0.000000	   1.404000	 1106.000000;
...
];

%% branch data
%	fbus	tbus	r	x	b	rateA	rateB	rateC	ratio	angle	status	angmin	angmax
mpc.branch = [
	1	 2	 2e-05	 0.00021	 0.0	 876.0	 1051.2	 1576.8	 0.0	 0.0	 1	 -6.44146441674	 6.44146441674;
	1	 10	 0.00593	 0.04093	 0.07215	 341.0	 409.2	 613.8	 0.0	 0.0	 1	 -6.44146441674	 6.44146441674;
	2	 507	 0.0001	 0.01	 0.0	 83.7	 100.44	 150.66	 0.0	 0.0	 1	 -6.44146441674	 6.44146441674;
	3	 4	 2e-05	 0.00021	 0.0	 876.0	 1051.2	 1576.8	 0.0	 0.0	 1	 -6.44146441674	 6.44146441674;
	3	 8	 0.00777	 0.04128	 0.06391	 197.0	 236.4	 354.6	 0.0	 0.0	 1	 -6.44146441674	 6.44146441674;
	4	 1027	 0.0001	 0.01	 0.0	 198.78	 238.54	 357.81	 0.0	 0.0	 1	 -6.44146441674	 6.44146441674;
	5	 6	 2e-05	 0.00021	 0.0	 876.0	 1051.2	 1576.8	 0.0	 0.0	 1	 -6.44146441674	 6.44146441674;
	5	 9	 0.00488	 0.03362	 0.05961	 341.0	 409.2	 613.8	 0.0	 0.0	 1	 -6.44146441674	 6.44146441674;
	6	 217	 0.0001	 0.01	 0.0	 445.51	 534.61	 801.91	 0.0	 0.0	 1	 -6.44146441674	 6.44146441674;
	7	 8	 2e-05	 0.00021	 0.0	 876.0	 1051.2	 1576.8	 0.0	 0.0	 1	 -6.44146441674	 6.44146441674;
	7	 10	 0.00455	 0.03157	 0.05531	 231.0	 277.2	 415.8	 0.0	 0.0	 1	 -6.44146441674	 6.44146441674;
	9	 10	 2e-05	 0.00021	 0.0	 876.0	 1051.2	 1576.8	 0.0	 0.0	 1	 -6.44146441674	 6.44146441674;
	9	 2095	 0.0001	 0.01	 0.0	 140.51	 168.61	 252.91	 0.0	 0.0	 1	 -6.44146441674	 6.44146441674;
	11	 23	 0.03868	 0.10116	 0.0108	 87.61	 105.13	 157.7	 0.0	 0.0	 1	 -6.44146441674	 6.44146441674;
	11	 26	 0.00719	 0.02248	 0.00246	 50.0	 60.0	 90.0	 0.0	 0.0	 1	 -6.44146441674	 6.44146441674;
	11	 43	 0.01636	 0.04132	 0.0045	 50.0	 60.0	 90.0	 0.0	 0.0	 1	 -6.44146441674	 6.44146441674;
	12	 14	 0.00752	 0.02207	 0.00251	 80.22	 96.26	 144.4	 0.0	 0.0	 1	 -6.44146441674	 6.44146441674;
	12	 25	 0.00719	 0.02256	 0.00247	 50.0	 60.0	 90.0	 0.0	 0.0	 1	 -6.44146441674	 6.44146441674;
	13	 59	 0.02256	 0.04314	 0.004	 50.0	 60.0	 90.0	 0.0	 0.0	 1	 -6.44146441674	 6.44146441674;
	14	 245	 0.0001	 0.01	 0.0	 83.7	 100.44	 150.66	 0.0	 0.0	 1	 -6.44146441674	 6.44146441674;
	15	 16	 0.00058	 0.00157	 0.00021	 50.0	 60.0	 90.0	 0.0	 0.0	 1	 -6.44146441674	 6.44146441674;
	16	 58	 0.00107	 0.00298	 0.0004	 112.72	 135.26	 202.9	 0.0	 0.0	 1	 -6.44146441674	 6.44146441674;
	16	 64	 0.00182	 0.00529	 0.00071	 111.39	 133.67	 200.5	 0.0	 0.0	 1	 -6.44146441674	 6.44146441674;
	17	 20	 0.00496	 0.0162	 0.00164	 75.0	 90.0	 135.0	 0.0	 0.0	 1	 -6.44146441674	 6.44146441674;
	18	 62	 0.00033	 0.00099	 0.00013	 50.0	 60.0	 90.0	 0.0	 0.0	 1	 -6.44146441674	 6.44146441674;
	19	 63	 0.00033	 0.00091	 0.00012	 50.0	 60.0	 90.0	 0.0	 0.0	 1	 -6.44146441674	 6.44146441674;
	20	 28	 0.00934	 0.0257	 0.00253	 63.0	 75.6	 113.4	 0.0	 0.0	 1	 -6.44146441674	 6.44146441674;
	20	 30	 0.01504	 0.04033	 0.00401	 63.0	 75.6	 113.4	 0.0	 0.0	 1	 -6.44146441674	 6.44146441674;
	21	 22	 8e-05	 0.00083	 0.0	 438.0	 525.6	 788.4	 0.0	 0.0	 1	 -6.44146441674	 6.44146441674;
	21	 44	 0.00512	 0.01669	 0.00168	 114.0	 136.8	 205.2	 0.0	 0.0	 1	 -6.44146441674	 6.44146441674;
	22	 46	 0.02826	 0.0924	 0.00933	 99.0	 118.8	 178.2	 0.0	 0.0	 1	 -6.44146441674	 6.44146441674;
	24	 46	 0.01669	 0.04364	 0.00566	 106.38	 127.66	 191.48	 0.0	 0.0	 1	 -6.44146441674	 6.44146441674;
	24	 271	 0.0001	 0.01	 0.0	 83.7	 100.44	 150.66	 0.0	 0.0	 1	 -6.44146441674	 6.44146441674;
	25	 26	 8e-05	 0.00083	 0.0	 50.0	 60.0	 90.0	 0.0	 0.0	 1	 -6.44146441674	 6.44146441674;
	25	 38	 0.01595	 0.0414	 0.00404	 50.0	 60.0	 90.0	 0.0	 0.0	 1	 -6.44146441674	 6.44146441674;
	26	 37	 0.01595	 0.04132	 0.00403	 50.0	 60.0	 90.0	 0.0	 0.0	 1	 -6.44146441674	 6.44146441674;
	26	 41	 0.02926	 0.0514	 0.00489	 50.0	 60.0	 90.0	 0.0	 0.0	 1	 -6.44146441674	 6.44146441674;
	27	 28	 0.00554	 0.00959	 0.00095	 50.0	 60.0	 90.0	 0.0	 0.0	 1	 -6.44146441674	 6.44146441674;
	28	 64	 0.0057	 0.01479	 0.0015	 63.0	 75.6	 113.4	 0.0	 0.0	 1	 -6.44146441674	 6.44146441674;
	29	 30	 0.00017	 0.00041	 6e-05	 75.0	 90.0	 135.0	 0.0	 0.0	 1	 -6.44146441674	 6.44146441674;
	30	 65	 8e-05	 0.00025	 2e-05	 75.0	 90.0	 135.0	 0.0	 0.0	 1	 -6.44146441674	 6.44146441674;
	31	 32	 8e-05	 0.00083	 0.0	 438.0	 525.6	 788.4	 0.0	 0.0	 1	 -6.44146441674	 6.44146441674;
	31	 69	 0.01298	 0.04074	 0.0045	 75.0	 90.0	 135.0	 0.0	 0.0	 1	 -6.44146441674	 6.44146441674;
	32	 530	 0.0001	 0.01	 0.0	 83.7	 100.44	 150.66	 0.0	 0.0	 1	 -6.44146441674	 6.44146441674;
	33	 34	 0.00165	 0.00537	 0.00054	 50.0	 60.0	 90.0	 0.0	 0.0	 1	 -6.44146441674	 6.44146441674;
	34	 54	 0.01926	 0.06198	 0.00647	 103.29	 123.95	 185.92	 0.0	 0.0	 1	 -6.44146441674	 6.44146441674;
	34	 68	 0.01041	 0.03388	 0.00346	 114.08	 136.9	 205.34	 0.0	 0.0	 1	 -6.44146441674	 6.44146441674;
	35	 37	 0.0005	 0.00107	 0.00014	 50.0	 60.0	 90.0	 0.0	 0.0	 1	 -6.44146441674	 6.44146441674;
	36	 38	 0.0005	 0.00116	 0.00014	 50.0	 60.0	 90.0	 0.0	 0.0	 1	 -6.44146441674	 6.44146441674;
	37	 64	 0.03174	 0.08347	 0.00816	 50.0	 60.0	 90.0	 0.0	 0.0	 1	 -6.44146441674	 6.44146441674;
	38	 65	 0.03174	 0.08347	 0.00816	 50.0	 60.0	 90.0	 0.0	 0.0	 1	 -6.44146441674	 6.44146441674;
	39	 66	 0.03826	 0.04818	 0.00455	 83.83	 100.59	 150.89	 0.0	 0.0	 1	 -6.44146441674	 6.44146441674;
	39	 1234	 0.0001	 0.01	 0.0	 83.7	 100.44	 150.66	 0.0	 0.0	 1	 -6.44146441674	 6.44146441674;
	40	 41	 8e-05	 0.00083	 0.0	 438.0	 525.6	 788.4	 0.0	 0.0	 1	 -6.44146441674	 6.44146441674;
	40	 59	 0.04025	 0.07132	 0.00662	 47.0	 56.4	 84.6	 0.0	 0.0	 1	 -6.44146441674	 6.44146441674;
	42	 43	 0.00058	 0.00099	 0.0001	 50.0	 60.0	 90.0	 0.0	 0.0	 1	 -6.44146441674	 6.44146441674;
	43	 2259	 0.0001	 0.01	 0.0	 50.0	 60.0	 90.0	 0.0	 0.0	 1	 -6.44146441674	 6.44146441674;
	44	 45	 8e-05	 0.00083	 0.0	 438.0	 525.6	 788.4	 0.0	 0.0	 1	 -6.44146441674	 6.44146441674;
	44	 1951	 0.0001	 0.01	 0.0	 83.7	 100.44	 150.66	 0.0	 0.0	 1	 -6.44146441674	 6.44146441674;
	45	 52	 0.03438	 0.11107	 0.01156	 50.0	 60.0	 90.0	 0.0	 0.0	 1	 -6.44146441674	 6.44146441674;
	45	 70	 0.01041	 0.03405	 0.00418	 114.0	 136.8	 205.2	 0.0	 0.0	 1	 -6.44146441674	 6.44146441674;
	46	 49	 0.03488	 0.0881	 0.01298	 117.72	 141.26	 211.9	 0.0	 0.0	 1	 -6.44146441674	 6.44146441674;
	46	 53	 0.00669	 0.0162	 0.00254	 156.14	 187.36	 281.04	 0.0	 0.0	 1	 -6.44146441674	 6.44146441674;
	46	 2246	 0.0001	 0.01	 0.0	 83.7	 100.44	 150.66	 0.0	 0.0	 1	 -6.44146441674	 6.44146441674;
	47	 48	 8e-05	 0.00083	 0.0	 438.0	 525.6	 788.4	 0.0	 0.0	 1	 -6.44146441674	 6.44146441674;
	47	 69	 0.0038	 0.01083	 0.00145	 75.0	 90.0	 135.0	 0.0	 0.0	 1	 -6.44146441674	 6.44146441674;
	48	 61	 0.00711	 0.02074	 0.00265	 75.0	 90.0	 135.0	 0.0	 0.0	 1	 -6.44146441674	 6.44146441674;
	49	 1344	 0.0001	 0.01	 0.0	 86.7	 104.04	 156.06	 0.0	 0.0	 1	 -6.44146441674	 6.44146441674;
	50	 51	 0.00017	 0.00041	 5e-05	 50.0	 60.0	 90.0	 0.0	 0.0	 1	 -6.44146441674	 6.44146441674;
	51	 57	 0.00066	 0.00107	 0.00018	 97.82	 117.38	 176.08	 0.0	 0.0	 1	 -6.44146441674	 6.44146441674;
	51	 59	 0.02702	 0.05752	 0.00544	 97.82	 117.39	 176.08	 0.0	 0.0	 1	 -6.44146441674	 6.44146441674;
	52	 69	 0.0262	 0.08496	 0.00871	 99.0	 118.8	 178.2	 0.0	 0.0	 1	 -6.44146441674	 6.44146441674;
	53	 2148	 0.0001	 0.01	 0.0	 128.96	 154.76	 232.13	 0.0	 0.0	 1	 -6.44146441674	 6.44146441674;
	54	 55	 8e-05	 0.00083	 0.0	 438.0	 525.6	 788.4	 0.0	 0.0	 1	 -6.44146441674	 6.44146441674;
	55	 64	 0.00231	 0.00744	 0.00077	 75.0	 90.0	 135.0	 0.0	 0.0	 1	 -6.44146441674	 6.44146441674;
	56	 57	 8e-05	 0.00083	 0.0	 438.0	 525.6	 788.4	 0.0	 0.0	 1	 -6.44146441674	 6.44146441674;
	56	 66	 0.00727	 0.00975	 0.00189	 80.63	 96.76	 145.14	 0.0	 0.0	 1	 -6.44146441674	 6.44146441674;
	58	 2244	 0.0001	 0.01	 0.0	 83.7	 100.44	 150.66	 0.0	 0.0	 1	 -6.44146441674	 6.44146441674;
	59	 68	 0.0119	 0.03686	 0.00418	 129.05	 154.86	 232.29	 0.0	 0.0	 1	 -6.44146441674	 6.44146441674;
	60	 61	 0.00124	 0.00347	 0.00046	 50.0	 60.0	 90.0	 0.0	 0.0	 1	 -6.44146441674	 6.44146441674;
	62	 63	 8e-05	 0.00083	 0.0	 438.0	 525.6	 788.4	 0.0	 0.0	 1	 -6.44146441674	 6.44146441674;
	62	 65	 0.01008	 0.03182	 0.00345	 75.0	 90.0	 135.0	 0.0	 0.0	 1	 -6.44146441674	 6.44146441674;
	63	 68	 0.0176	 0.05686	 0.00587	 97.87	 117.44	 176.17	 0.0	 0.0	 1	 -6.44146441674	 6.44146441674;
	66	 67	 8e-05	 0.00083	 0.0	 50.0	 60.0	 90.0	 0.0	 0.0	 1	 -6.44146441674	 6.44146441674;
	67	 1980	 0.0001	 0.01	 0.0	 83.7	 100.44	 150.66	 0.0	 0.0	 1	 -6.44146441674	 6.44146441674;
	71	 72	 2e-05	 0.00021	 0.0	 50.0	 60.0	 90.0	 0.0	 0.0	 1	 -6.44146441674	 6.44146441674;
	71	 76	 0.00568	 0.04012	 0.07033	 317.0	 380.4	 570.6	 0.0	 0.0	 1	 -6.44146441674	 6.44146441674;
	71	 81	 0.00105	 0.00733	 0.01258	 231.0	 277.2	 415.8	 0.0	 0.0	 1	 -6.44146441674	 6.44146441674;
	73	 74	 2e-05	 0.00021	 0.0	 50.0	 60.0	 90.0	 0.0	 0.0	 1	 -6.44146441674	 6.44146441674;
	73	 75	 0.01062	 0.0789	 0.12085	 631.86	 758.23	 1137.35	 0.0	 0.0	 1	 -6.44146441674	 6.44146441674;
	73	 78	 0.01058	 0.07762	 0.12203	 596.86	 716.23	 1074.35	 0.0	 0.0	 1	 -6.44146441674	 6.44146441674;
	75	 76	 2e-05	 0.00021	 0.0	 876.0	 1051.2	 1576.8	 0.0	 0.0	 1	 -6.44146441674	 6.44146441674;
	75	 79	 0.00469	 0.03486	 0.05338	 317.0	 380.4	 570.6	 0.0	 0.0	 1	 -6.44146441674	 6.44146441674;
	75	 150	 0.0018	 0.01616	 0.0484	 754.02	 904.82	 1357.24	 0.0	 0.0	 1	 -6.44146441674	 6.44146441674;
	76	 150	 0.0018	 0.01616	 0.0484	 734.76	 881.71	 1322.57	 0.0	 0.0	 1	 -6.44146441674	 6.44146441674;
	77	 1621	 0.0001	 0.01	 0.0	 399.91	 479.89	 719.84	 0.0	 0.0	 1	 -6.44146441674	 6.44146441674;
	78	 581	 0.0001	 0.01	 0.0	 179.0	 196.9	 214.8	 0.0	 0.0	 1	 -6.44146441674	 6.44146441674;
	79	 80	 2e-05	 0.00021	 0.0	 50.0	 60.0	 90.0	 0.0	 0.0	 1	 -6.44146441674	 6.44146441674;
	79	 82	 0.00744	 0.05397	 0.09307	 231.0	 277.2	 415.8	 0.0	 0.0	 1	 -6.44146441674	 6.44146441674;
	81	 82	 2e-05	 0.00021	 0.0	 50.0	 60.0	 90.0	 0.0	 0.0	 1	 -6.44146441674	 6.44146441674;
	83	 108	 0.01011	 0.03425	 0.00339	 50.0	 60.0	 90.0	 0.0	 0.0	 1	 -6.44146441674	 6.44146441674;
	83	 124	 0.00228	 0.00772	 0.00076	 120.0	 144.0	 216.0	 0.0	 0.0	 1	 -6.44146441674	 6.44146441674;
	84	 114	 0.0138	 0.02421	 0.0023	 90.58	 108.7	 163.04	 0.0	 0.0	 1	 -6.44146441674	 6.44146441674;
	84	 143	 0.01877	 0.03282	 0.00313	 107.46	 128.95	 193.43	 0.0	 0.0	 1	 -6.44146441674	 6.44146441674;
	85	 92	 9e-05	 0.00069	 7e-05	 186.5	 223.8	 335.7	 0.0	 0.0	 1	 -6.44146441674	 6.44146441674;
	85	 101	 0.00555	 0.01818	 0.00186	 148.68	 178.42	 267.62	 0.0	 0.0	 1	 -6.44146441674	 6.44146441674;
	86	 140	 0.02182	 0.07107	 0.00737	 120.0	 144.0	 216.0	 0.0	 0.0	 1	 -6.44146441674	 6.44146441674;
	86	 1637	 0.0001	 0.01	 0.0	 146.4	 175.68	 263.52	 0.0	 0.0	 1	 -6.44146441674	 6.44146441674;
	87	 113	 0.05033	 0.13388	 0.01203	 50.0	 60.0	 90.0	 0.0	 0.0	 1	 -6.44146441674	 6.44146441674;
	87	 141	 0.02851	 0.09843	 0.00896	 50.0	 60.0	 90.0	 0.0	 0.0	 1	 -6.44146441674	 6.44146441674;
	88	 91	 0.02174	 0.05	 0.00501	 108.6	 130.32	 195.48	 0.0	 0.0	 1	 -6.44146441674	 6.44146441674;
	88	 107	 0.03471	 0.06744	 0.00663	 104.92	 125.9	 188.86	 0.0	 0.0	 1	 -6.44146441674	 6.44146441674;
	89	 101	 0.02058	 0.0676	 0.00569	 164.41	 197.3	 295.95	 0.0	 0.0	 1	 -6.44146441674	 6.44146441674;
	89	 112	 0.01983	 0.05504	 0.00595	 76.0	 91.2	 136.8	 0.0	 0.0	 1	 -6.44146441674	 6.44146441674;
	89	 123	 0.00926	 0.0186	 0.00181	 76.0	 91.2	 136.8	 0.0	 0.0	 1	 -6.44146441674	 6.44146441674;
	89	 144	 0.00375	 0.01025	 0.00103	 102.0	 122.4	 183.6	 0.0	 0.0	 1	 -6.44146441674	 6.44146441674;
	90	 107	 0.04669	 0.09545	 0.00939	 120.63	 144.76	 217.13	 0.0	 0.0	 1	 -6.44146441674	 6.44146441674;
	90	 663	 0.0001	 0.01	 0.0	 83.7	 100.44	 150.66	 0.0	 0.0	 1	 -6.44146441674	 6.44146441674;
	91	 135	 0.04463	 0.09421	 0.00963	 92.49	 110.99	 166.48	 0.0	 0.0	 1	 -6.44146441674	 6.44146441674;
	92	 93	 8e-05	 0.00083	 0.0	 50.0	 60.0	 90.0	 0.0	 0.0	 1	 -6.44146441674	 6.44146441674;
	92	 105	 0.00064	 0.00483	 0.00047	 185.52	 222.62	 333.93	 0.0	 0.0	 1	 -6.44146441674	 6.44146441674;
	92	 140	 0.01289	 0.04198	 0.00436	 120.0	 144.0	 216.0	 0.0	 0.0	 1	 -6.44146441674	 6.44146441674;
	94	 119	 0.04152	 0.07429	 0.0071	 51.83	 62.2	 93.29	 0.0	 0.0	 1	 -6.44146441674	 6.44146441674;
	94	 127	 0.05017	 0.08774	 0.00837	 39.0	 46.8	 70.2	 0.0	 0.0	 1	 -6.44146441674	 6.44146441674;
	95	 104	 0.06926	 0.12157	 0.01174	 78.0	 93.6	 140.4	 0.0	 0.0	 1	 -6.44146441674	 6.44146441674;
	95	 138	 0.01818	 0.05884	 0.00612	 120.0	 144.0	 216.0	 0.0	 0.0	 1	 -6.44146441674	 6.44146441674;
	96	 97	 8e-05	 0.00083	 0.0	 438.0	 525.6	 788.4	 0.0	 0.0	 1	 -6.44146441674	 6.44146441674;
	96	 118	 0.0078	 0.02641	 0.00262	 50.0	 60.0	 90.0	 0.0	 0.0	 1	 -6.44146441674	 6.44146441674;
	96	 124	 0.0256	 0.0784	 0.00806	 50.0	 60.0	 90.0	 0.0	 0.0	 1	 -6.44146441674	 6.44146441674;
	96	 129	 0.00628	 0.01058	 0.00108	 50.0	 60.0	 90.0	 0.0	 0.0	 1	 -6.44146441674	 6.44146441674;
	96	 137	 0.0096	 0.02474	 0.00251	 50.0	 60.0	 90.0	 0.0	 0.0	 1	 -6.44146441674	 6.44146441674;
	97	 108	 0.00389	 0.01319	 0.00131	 50.0	 60.0	 90.0	 0.0	 0.0	 1	 -6.44146441674	 6.44146441674;
	97	 148	 0.01777	 0.03157	 0.00301	 78.0	 93.6	 140.4	 0.0	 0.0	 1	 -6.44146441674	 6.44146441674;
	98	 103	 0.0014	 0.00463	 0.00046	 119.73	 143.68	 215.51	 0.0	 0.0	 1	 -6.44146441674	 6.44146441674;
	98	 2179	 0.0001	 0.01	 0.0	 247.0	 271.7	 296.4	 0.0	 0.0	 1	 -6.44146441674	 6.44146441674;
	99	 2172	 0.0001	 0.01	 0.0	 250.0	 275.0	 300.0	 0.0	 0.0	 1	 -6.44146441674	 6.44146441674;
	100	 111	 0.06537	 0.11488	 0.01096	 78.0	 93.6	 140.4	 0.0	 0.0	 1	 -6.44146441674	 6.44146441674;
	100	 146	 0.03983	 0.06967	 0.00666	 78.0	 93.6	 140.4	 0.0	 0.0	 1	 -6.44146441674	 6.44146441674;
	102	 122	 0.01289	 0.03372	 0.00333	 102.0	 122.4	 183.6	 0.0	 0.0	 1	 -6.44146441674	 6.44146441674;
	102	 125	 0.00661	 0.01826	 0.00194	 102.0	 122.4	 183.6	 0.0	 0.0	 1	 -6.44146441674	 6.44146441674;
	103	 143	 0.05945	 0.10398	 0.00992	 129.86	 155.83	 233.75	 0.0	 0.0	 1	 -6.44146441674	 6.44146441674;
	104	 128	 0.03397	 0.0581	 0.00559	 72.0	 86.4	 129.6	 0.0	 0.0	 1	 -6.44146441674	 6.44146441674;
	106	 126	 0.04961	 0.1096	 0.01071	 100.61	 120.73	 181.1	 0.0	 0.0	 1	 -6.44146441674	 6.44146441674;
	106	 145	 0.00574	 0.01944	 0.00192	 86.38	 103.66	 155.48	 0.0	 0.0	 1	 -6.44146441674	 6.44146441674;
	109	 112	 0.02264	 0.07355	 0.00762	 50.0	 60.0	 90.0	 0.0	 0.0	 1	 -6.44146441674	 6.44146441674;
	110	 113	 0.02706	 0.09164	 0.00907	 59.6	 71.52	 107.28	 0.0	 0.0	 1	 -6.44146441674	 6.44146441674;
	110	 119	 0.02078	 0.03802	 0.00364	 67.66	 81.19	 121.79	 0.0	 0.0	 1	 -6.44146441674	 6.44146441674;
	111	 127	 0.03769	 0.06554	 0.00624	 78.0	 93.6	 140.4	 0.0	 0.0	 1	 -6.44146441674	 6.44146441674;
	112	 128	 0.0343	 0.24545	 0.02408	 120.0	 144.0	 216.0	 0.0	 0.0	 1	 -6.44146441674	 6.44146441674;
	112	 131	 0.00813	 0.02214	 0.00223	 50.0	 60.0	 90.0	 0.0	 0.0	 1	 -6.44146441674	 6.44146441674;
	112	 145	 0.00697	 0.0236	 0.00234	 87.59	 105.11	 157.66	 0.0	 0.0	 1	 -6.44146441674	 6.44146441674;
	113	 130	 0.00813	 0.02214	 0.00223	 50.0	 60.0	 90.0	 0.0	 0.0	 1	 -6.44146441674	 6.44146441674;
	113	 135	 0.0286	 0.05322	 0.00515	 277.0	 304.7	 332.4	 0.0	 0.0	 1	 -6.44146441674	 6.44146441674;
	113	 149	 0.04023	 0.10277	 0.01021	 78.0	 93.6	 140.4	 0.0	 0.0	 1	 -6.44146441674	 6.44146441674;
	114	 126	 0.04802	 0.10264	 0.01344	 84.09	 100.91	 151.36	 0.0	 0.0	 1	 -6.44146441674	 6.44146441674;
	115	 143	 0.02111	 0.0715	 0.00708	 50.0	 60.0	 90.0	 0.0	 0.0	 1	 -6.44146441674	 6.44146441674;
	116	 128	 0.02306	 0.05736	 0.00587	 76.0	 91.2	 136.8	 0.0	 0.0	 1	 -6.44146441674	 6.44146441674;
	116	 134	 0.01107	 0.02744	 0.00281	 50.0	 60.0	 90.0	 0.0	 0.0	 1	 -6.44146441674	 6.44146441674;
	117	 138	 0.01947	 0.06595	 0.00653	 34.0	 40.8	 61.2	 0.0	 0.0	 1	 -6.44146441674	 6.44146441674;
	118	 139	 0.00317	 0.01073	 0.00106	 50.0	 60.0	 90.0	 0.0	 0.0	 1	 -6.44146441674	 6.44146441674;
	120	 121	 8e-05	 0.00083	 0.0	 438.0	 525.6	 788.4	 0.0	 0.0	 1	 -6.44146441674	 6.44146441674;
	122	 148	 0.00818	 0.02149	 0.00212	 50.0	 60.0	 90.0	 0.0	 0.0	 1	 -6.44146441674	 6.44146441674;
	123	 146	 0.01314	 0.02554	 0.00246	 78.0	 93.6	 140.4	 0.0	 0.0	 1	 -6.44146441674	 6.44146441674;
	124	 125	 8e-05	 0.00083	 0.0	 438.0	 525.6	 788.4	 0.0	 0.0	 1	 -6.44146441674	 6.44146441674;
	124	 136	 0.00595	 0.02016	 0.002	 76.0	 91.2	 136.8	 0.0	 0.0	 1	 -6.44146441674	 6.44146441674;
	125	 139	 0.00486	 0.01645	 0.00163	 120.0	 144.0	 216.0	 0.0	 0.0	 1	 -6.44146441674	 6.44146441674;
...